--RUNSPEC section--------------------------------------------------

RUNSPEC

TITLE
GAS RES.

--Request the FIELD unit set

FIELD
--NOSIM
UNIFIN
UNIFOUT
 
WATER
GAS

DIMENS
22 22 10/

TABDIMS
1 1 40 40/

WELLDIMS
10 10 1 5/
NSTACK
200/

UDQDIMS
25 25 2  2  2  2  2  4  2  2/

--FAULTDIM
--2/
 
START
1 'JAN' 2011/
 
GRID             
--======================================================================
-------- IN THIS SECTION , THE GEOMETRY OF THE SIMULATION GRID AND THE
-------- ROCK PERMEABILITIES AND POROSITIES ARE DEFINED.
------------------------------------------------------------------------
INIT


DX
4840*200/

DY
4840*200/

DZ
4840*70/

TOPS
484*6000/

INCLUDE
PORO.INC/

PERMX
4840*10/

--INCLUDE
--NG.INC/

COPY
PERMX PERMY/
PERMX PERMZ/
/


--FAULTS
--       IX1  IX2  IY1  IY2  IZ1  IZ2  FACE
--TEST 16 16 8 16 5 10 X/
--TEST 10 16 16 16 5 10 Y/
--/

--MULTFLT
-- Multiplier (no diffusion)
--TEST 0/
--/

RPTGRID
 1  1  1  1  0  1  0  0  0  1  0  1  1  1  1  0  1/

--RPTGRID
--FAULTS/



--===============================================================

PROPS

SGWFN
.0000 .0000 1.0000 .0000
.0400 .0000 0.9000 .2000
.1000 .0220 0.8000 .5000
.2000 .1000 0.5000 1.0000
.3000 .2400 1* 1*
.5000 .4200 1* 1*
.6000 .5000 0.1125 3.0000
.7000 .8125 0.0000 3.5000
.7800 1.0000 0.0000 3.9000
/


PVDG
400.000 5.90000 .01300
800.000 2.95000 .01350
1200.00 1.96000 .01400
1600.00 1.47000 .01450
2000.00 1.18000 .01500
2400.00 .98000 .01550
2800.00 .84000 .01600
3200.00 .74000 .01650
3600.00 .65000 .01700
4000.00 .59000 .01750
4400.00 .54000 .01800
4800.00 .49000 .01850
5200.00 .45000 .01900
5600.00 .42000 .01950 /


PVTW
3600.0000 1.00341 3.00E-06 0.52341 0.00E-01/


ROCK
3600.00 .40E-05/

--Surface density of water

DENSITY
45.0000 63.0200 .07020/

--===============================================================

--REGIONS


--===============================================================

--Solution section------------------------------------------------------

SOLUTION ===============================================================
-------- THE SOLUTION SECTION DEFINES THE INITIAL STATE OF THE SOLUTION
-------- VARIABLES (PHASE PRESSURES, SATURATIONS AND GAS-OIL RATIOS)
------------------------------------------------------------------------
-- DATA FOR INITIALISING FLUIDS TO POTENTIAL EQUILIBRIUM
--
--    DATUM  DATUM   OWC    OWC    GOC    GOC    RSVD   RVVD   SOLN
--    DEPTH  PRESS  DEPTH   PCOW  DEPTH   PCOG  TABLE  TABLE   METH
EQUIL
      6700   5300   6560    0     5000    1* /

RPTRST
PRESSURE VGAS  KRG KRW /

RPTSOL
PRESSURE SGAS SWAT  KRG KRW /




SUMMARY ================================================================
-------- THIS SECTION SPECIFIES DATA TO BE WRITTEN TO THE SUMMARY FILES
-------- AND WHICH MAY LATER BE USED WITH THE ECLIPSE GRAPHICS PACKAGE
------------------------------------------------------------------------

--FPR
--FGPR
FGPT
--FWCT
--FWPR
FWPT
--FLPT
--FOIP
--FOSAT
--FWSAT
--WOIR
--/
--WWIR
--/
FUNPV
EXCEL
--================================================================


SCHEDULE

RPTSCHED                                        
   1   0   1   1   0     0   2   2   2   0     0   2   0   0   0
   0   0   0   0   0     0   0   0   0   0     0   0   0   0   0
   0   0   0   0   0     0   0   0   1   0     0   0   0   0   0  /

--Define separator ; third stage represents stock tank
TUNING
/
/
100 1 100/



INCLUDE
location.m/

INCLUDE
compdat.m/

WCONPROD
A OPEN GRAT 2* 10000/
B OPEN GRAT 2* 10000/
C OPEN GRAT 2* 10000/
--D OPEN GRAT 2* 10000/
/

--WCONINJE
--I1 WATER OPEN RATE 10000/
--/

INCLUDE
NPV.m/

TSTEP
10*365.25/


END